# Packages (lines beginning "#" are comments)
 &PACKAGES
 useDiagnostics = .TRUE.,
 useKPP = .TRUE.,
 &
