#
#
# ******************
# cost function
# ******************
 &COST_NML
  mult_atl = 1.,
 &
