# Packages (lines beginning "#" are comments)
 &PACKAGES
 useDiagnostics = .TRUE.,
 useGMRedi      = .TRUE.,
 useKPP         = .TRUE.,
 useGrdchk      = .TRUE.,
 &
