# Packages (lines beginning "#" are comments)
 &PACKAGES
 useDiagnostics = .TRUE.,
 useGMRedi      = .TRUE.,
 useKPP         = .TRUE.,
# useEXF         = .TRUE.,
 useCAL         = .TRUE.,
 &
