# Packages (lines beginning "#" are comments)
 &PACKAGES
 useDiagnostics=.TRUE.,
 useGMRedi=.TRUE.,
 useGrdchk=.TRUE.,

 &
