# Packages (lines beginning "#" are comments)
 &PACKAGES
 useKPP = .TRUE.,
 useDiagnostics=.TRUE.,
 &
